9
B2Be2H5 - ambient pressure superconductor candidate
Be      0.000000     0.000000     0.000000
Be      2.688000     0.000000     0.000000
B       4.822000     0.000000     1.067000
B       3.018000     0.000000     1.969000
H       4.327000     0.000000     2.623500
H       4.578540     0.774160     3.030500
H       3.920000     1.252617     3.437500
H       3.261460     0.774160     3.844500
H       3.513000     0.000000     4.251500
