8
BeC4H3 - ambient pressure superconductor candidate
Be      0.000000     0.000000     0.000000
C       2.079000     0.000000     1.039500
C       2.079000     1.694000     1.886500
C       0.385000     1.694000     2.733500
C       0.385000     0.000000     3.580500
H       1.639000     0.000000     4.207500
H       1.232000     0.704945     4.614500
H       0.825000     0.000000     5.021500
