10
BBeC4H4 - ambient pressure superconductor candidate
Be      0.000000     0.000000     0.000000
B       2.134000     0.000000     1.067000
C       3.883000     0.000000     1.941500
C       3.883000     1.694000     2.788500
C       2.189000     1.694000     3.635500
C       2.189000     0.000000     4.482500
H       3.443000     0.000000     5.109500
H       3.443000     0.814000     5.516500
H       2.629000     0.814000     5.923500
H       2.629000     0.000000     6.330500
