8
BBeC2H4 - ambient pressure superconductor candidate
Be      0.000000     0.000000     0.000000
B       2.134000     0.000000     1.067000
C       3.883000     0.000000     1.941500
C       2.189000     0.000000     2.788500
H       3.443000     0.000000     3.415500
H       3.443000     0.814000     3.822500
H       2.629000     0.814000     4.229500
H       2.629000     0.000000     4.636500
