12
B3BeC2H6 - ambient pressure superconductor candidate
Be      0.000000     0.000000     0.000000
B       2.134000     0.000000     1.067000
B       1.232000     1.562310     1.969000
B       0.330000     0.000000     2.871000
C       2.079000     0.000000     3.745500
C       0.385000     0.000000     4.592500
H       1.639000     0.000000     5.219500
H       2.046000     0.704945     5.626500
H       1.639000     1.409889     6.033500
H       0.825000     1.409889     6.440500
H       0.418000     0.704945     6.847500
H       0.825000     0.000000     7.254500
