11
Be2C4H5 - ambient pressure superconductor candidate
Be      0.000000     0.000000     0.000000
Be      2.688000     0.000000     0.000000
C       4.767000     0.000000     1.039500
C       4.767000     1.694000     1.886500
C       3.073000     1.694000     2.733500
C       3.073000     0.000000     3.580500
H       4.327000     0.000000     4.207500
H       4.578540     0.774160     4.614500
H       3.920000     1.252617     5.021500
H       3.261460     0.774160     5.428500
H       3.513000     0.000000     5.835500
