11
B2BeC3H5 - ambient pressure superconductor candidate
Be     0.000000     0.000000     0.000000
B      2.134000     0.000000     1.067000
B      0.330000     0.000000     1.969000
C      2.079000     0.000000     2.843500
C      1.232000     1.467047     3.690500
C      0.385000     0.000000     4.537500
H      1.639000     0.000000     5.164500
H      1.890540     0.774160     5.571500
H      1.232000     1.252617     5.978500
H      0.573460     0.774160     6.385500
H      0.825000     0.000000     6.792500
