11
B2BeC4H4 - ambient pressure superconductor candidate
Be     0.000000     0.000000     0.000000
B      2.134000     0.000000     1.067000
B      0.330000     0.000000     1.969000
C      2.079000     0.000000     2.843500
C      2.079000     1.694000     3.690500
C      0.385000     1.694000     4.537500
C      0.385000     0.000000     5.384500
H      1.639000     0.000000     6.011500
H      1.639000     0.814000     6.418500
H      0.825000     0.814000     6.825500
H      0.825000     0.000000     7.232500
