7
B2BeH4 - ambient pressure superconductor candidate
Be     0.000000     0.000000     0.000000
B      2.134000     0.000000     1.067000
B      0.330000     0.000000     1.969000
H      1.639000     0.000000     2.623500
H      1.639000     0.814000     3.030500
H      0.825000     0.814000     3.437500
H      0.825000     0.000000     3.844500
