9
B3BeCH4 - ambient pressure superconductor candidate
Be     0.000000     0.000000     0.000000
B      2.134000     0.000000     1.067000
B      1.232000     1.562310     1.969000
B      0.330000     0.000000     2.871000
C      2.079000     0.000000     3.745500
H      3.333000     0.000000     4.372500
H      3.333000     0.814000     4.779500
H      2.519000     0.814000     5.186500
H      2.519000     0.000000     5.593500
