7
B3BeH3 - ambient pressure superconductor candidate
Be     0.000000     0.000000     0.000000
B      2.134000     0.000000     1.067000
B      1.232000     1.562310     1.969000
B      0.330000     0.000000     2.871000
H      1.639000     0.000000     3.525500
H      1.232000     0.704945     3.932500
H      0.825000     0.000000     4.339500
