10
BBeC3H5 - ambient pressure superconductor candidate
Be     0.000000     0.000000     0.000000
B      2.134000     0.000000     1.067000
C      3.883000     0.000000     1.941500
C      3.036000     1.467047     2.788500
C      2.189000     0.000000     3.635500
H      3.443000     0.000000     4.262500
H      3.694540     0.774160     4.669500
H      3.036000     1.252617     5.076500
H      2.377460     0.774160     5.483500
H      2.629000     0.000000     5.890500
