12
Be3C3H6 - ambient pressure superconductor candidate
Be      0.000000     0.000000     0.000000
Be      2.688000     0.000000     0.000000
Be      1.344920     2.328407     0.000000
C       3.423920     2.328407     1.039500
C       2.576920     3.795454     1.886500
C       1.729920     2.328407     2.733500
H       2.983920     2.328407     3.360500
H       3.390920     3.033352     3.767500
H       2.983920     3.738296     4.174500
H       2.169920     3.738296     4.581500
H       1.762920     3.033352     4.988500
H       2.169920     2.328407     5.395500
