10
B2BeC2H5 - ambient pressure superconductor candidate
Be      0.000000     0.000000     0.000000
B       2.134000     0.000000     1.067000
B       0.330000     0.000000     1.969000
C       2.079000     0.000000     2.843500
C       0.385000     0.000000     3.690500
H       1.639000     0.000000     4.317500
H       1.890540     0.774160     4.724500
H       1.232000     1.252617     5.131500
H       0.573460     0.774160     5.538500
H       0.825000     0.000000     5.945500
