11
Be2C3H6 - ambient pressure superconductor candidate
Be      0.000000     0.000000     0.000000
Be      2.688000     0.000000     0.000000
C       4.767000     0.000000     1.039500
C       3.920000     1.467047     1.886500
C       3.073000     0.000000     2.733500
H       4.327000     0.000000     3.360500
H       4.734000     0.704945     3.767500
H       4.327000     1.409889     4.174500
H       3.513000     1.409889     4.581500
H       3.106000     0.704945     4.988500
H       3.513000     0.000000     5.395500
