9
BeC2H6 - ambient pressure superconductor candidate
Be      0.000000     0.000000     0.000000
C       2.079000     0.000000     1.039500
C       0.385000     0.000000     1.886500
H       1.639000     0.000000     2.513500
H       2.046000     0.704945     2.920500
H       1.639000     1.409889     3.327500
H       0.825000     1.409889     3.734500
H       0.418000     0.704945     4.141500
H       0.825000     0.000000     4.548500
