9
BBeCH6 - ambient pressure superconductor candidate
Be      0.000000     0.000000     0.000000
B       2.134000     0.000000     1.067000
C       3.883000     0.000000     1.941500
H       5.137000     0.000000     2.568500
H       5.544000     0.704945     2.975500
H       5.137000     1.409889     3.382500
H       4.323000     1.409889     3.789500
H       3.916000     0.704945     4.196500
H       4.323000     0.000000     4.603500
